design
  DSViewer          3D                             0

 52 55  0  0  0  0  0  0  0  0999 V2000
    6.7647   -2.0320   -0.9515 C   0  0
    6.8990   -3.3963   -0.2407 C   0  0
    6.3686   -3.3478    1.2079 C   0  0
    6.9675   -2.1809    2.0235 C   0  0
    6.8323   -0.8340    1.2832 C   0  0
    7.4072   -0.8744   -0.1535 C   0  0
   -2.9160    6.5650    1.5120 C   0  0
   -3.3100    5.1820    1.2450 N   0  0
   -4.7480    4.9160    1.1920 C   0  0
   -5.4570    5.4900    2.4430 C   0  0
   -5.1240    6.9320    2.6170 N   0  0
   -3.6530    7.1160    2.7580 C   0  0
   -5.7580    7.3910    3.8740 C   0  0
   -2.3090    3.9850    1.6950 S   0  0
   -2.9780    2.7290    1.3790 O   0  0
   -1.9630    4.2430    3.0880 O   0  0
    0.2960    3.1530    0.9100 C   0  0  2  0  0  0
    1.5280    3.5490    0.0950 C   0  0
    1.4320    3.8460   -1.1020 O   0  0
   -0.1770    1.7430    0.5160 C   0  0
    0.8180    0.6340    0.8040 C   0  0
    1.0340    0.1930    2.1320 C   0  0
    1.5360    0.0240   -0.2540 C   0  0
    1.9510   -0.8480    2.4020 C   0  0
    2.4540   -1.0170    0.0100 C   0  0
    2.6600   -1.4550    1.3390 C   0  0
   -0.8250    4.1730    0.6620 C   0  0
    2.7020    3.5740    0.7370 N   0  0
    3.9400    3.8840    0.0370 C   0  0  2  0  0  0
    5.0410    2.9590    0.5650 C   0  0
    5.1120    2.6850    1.7720 O   0  0
    4.3100    5.3540    0.2960 C   0  0
    5.6070    5.7610   -0.3850 C   0  0
    6.6060    6.5030    0.2550 C   0  0
    5.9270    5.4150   -1.7310 N   0  0
    7.9390    6.7770   -0.8000 S   0  0
    7.0890    5.8890   -2.0290 C   0  0
    2.7292    3.3758    1.7168 H   0  0
    5.9210    2.4870   -0.3250 N   0  0
    7.0430    1.6540    0.0850 C   0  0  2  0  0  0
    8.3210    2.5110    0.1070 C   0  0  1  0  0  0
    8.4670    3.1510   -1.1730 O   0  0
    7.1670    0.4630   -0.8810 C   0  0
    5.8060    2.7110   -1.2928 H   0  0
    9.2970    3.6440   -1.1720 H   0  0
    9.5980    4.3330    1.3620 C   0  0
   10.8440    3.4430    1.5520 C   0  0
    7.8700    2.9900    2.4620 O   0  0
    8.2490    3.5940    1.2150 C   0  0  2  0  0  0
    6.9150    2.8040    2.4330 H   0  0
   10.8630    2.8060    2.9530 C   0  0
   12.1110    4.2860    1.3640 C   0  0
  1  6  1  0  0  0
  1  2  1  0  0  0
  2  3  1  0  0  0
  3  4  1  0  0  0
  4  5  1  0  0  0
  5  6  1  0  0  0
  7  8  1  0  0  0
  7 12  1  0  0  0
  8  9  1  0  0  0
  9 10  1  0  0  0
 10 11  1  0  0  0
 11 12  1  0  0  0
 11 13  1  0  0  0
 14 15  2  0  0  0
 14 16  2  0  0  0
 17 18  1  0  0  0
 17 27  1  0  0  0
 17 20  1  0  0  0
 18 19  2  0  0  0
 20 21  1  0  0  0
 21 23  4  0  0  0
 21 22  4  0  0  0
 22 24  4  0  0  0
 23 25  4  0  0  0
 24 26  4  0  0  0
 25 26  4  0  0  0
 28 29  1  0  0  0
 28 38  1  0  0  0
 29 30  1  0  0  0
 29 32  1  0  0  0
 30 31  2  0  0  0
 32 33  1  0  0  0
 33 35  1  0  0  0
 33 34  2  0  0  0
 34 36  1  0  0  0
 35 37  2  0  0  0
 36 37  1  0  0  0
 39 44  1  0  0  0
 39 40  1  0  0  0
 40 41  1  0  0  0
 40 43  1  0  0  0
 41 42  1  0  0  0
 42 45  1  0  0  0
 46 49  1  0  0  0
 46 47  1  0  0  0
 47 51  1  0  0  0
 48 50  1  0  0  0
 48 49  1  0  0  0
  8 14  1  0  0  0
 27 14  1  0  0  0
 18 28  1  0  0  0
 39 30  1  0  0  0
 43  6  1  0  0  0
 41 49  1  0  0  0
 47 52  1  0  0  0
M  END
$$$$