thio
  DSViewer          3D                             0

 22 21  0  0  0  0  0  0  0  0999 V2000
    6.6875    2.8632   16.2652 N   0  0
    5.6447    2.1253   15.5685 C   0  0  2  0  0  0
    6.0729    0.7101   15.4093 C   0  0
    7.5962    0.3710   15.2957 S   0  0
    5.1203   -0.2939   15.3695 N   0  0
    5.5041   -1.6548   15.2193 C   0  0  2  0  0  0
    4.3905   -2.3688   14.5506 C   0  0
    3.3087   -1.7817   14.4372 O   0  0
    6.8503    2.4260   17.1825 H   0  0
    7.5555    2.8152   15.7142 H   0  0
    4.6729    2.1903   16.0804 H   0  0
    5.4807    2.7465   14.1704 C   0  0
    4.1525   -0.0666   15.4318 H   0  0
    6.4476   -1.7559   14.6631 H   0  0
    5.7078   -2.2801   16.6129 C   0  0
    4.5108   -3.2982   14.2015 H   0  0
    4.7678    2.2563   13.6689 H   0  0
    6.3448    2.6789   13.6717 H   0  0
    5.2226    3.7084   14.2608 H   0  0
    5.9779   -3.2376   16.5128 H   0  0
    4.8537   -2.2275   17.1304 H   0  0
    6.4241   -1.7814   17.1010 H   0  0
  1  2  1  0  0  0
  1  9  1  0  0  0
  1 10  1  0  0  0
  2  3  1  0  0  0
  2 11  1  0  0  0
  2 12  1  0  0  0
  3  4  2  0  0  0
  3  5  1  0  0  0
  5  6  1  0  0  0
  5 13  1  0  0  0
  6  7  1  0  0  0
  6 14  1  0  0  0
  6 15  1  0  0  0
  7  8  2  0  0  0
  7 16  1  0  0  0
 12 17  1  0  0  0
 12 18  1  0  0  0
 12 19  1  0  0  0
 15 20  1  0  0  0
 15 21  1  0  0  0
 15 22  1  0  0  0
M  END
$$$$