sulfonamide
  DSViewer          3D                             0

 23 22  0  0  0  0  0  0  0  0999 V2000
    6.7798    3.0996   15.5754 N   0  0
    5.6079    2.2945   15.4828 C   0  0  2  0  0  0
    6.2855    0.6882   15.6223 S   0  0
    7.2793    0.4932   14.4980 O   0  0
    5.1348   -0.4755   15.5741 N   0  0
    5.5050   -1.7302   15.1097 C   0  0  2  0  0  0
    4.5320   -2.0653   14.0857 C   0  0
    3.5793   -1.2919   13.9461 O   0  0
    7.2358    2.8500   16.4691 H   0  0
    7.4051    2.7991   14.8131 H   0  0
    4.9131    2.5105   16.3075 H   0  0
    4.9008    2.4853   14.1298 C   0  0
    4.1914   -0.2790   15.8160 H   0  0
    6.5301   -1.7174   14.7052 H   0  0
    5.4121   -2.7611   16.2439 C   0  0
    4.6286   -2.8841   13.5198 H   0  0
    4.0846    1.9087   14.0955 H   0  0
    5.5217    2.2276   13.3894 H   0  0
    4.6360    3.4437   14.0238 H   0  0
    5.6804   -3.6609   15.9000 H   0  0
    4.4720   -2.8010   16.5825 H   0  0
    6.0233   -2.4937   16.9889 H   0  0
    7.0303    0.6320   16.9374 O   0  0
  1  2  1  0  0  0
  1  9  1  0  0  0
  1 10  1  0  0  0
  2  3  1  0  0  0
  2 11  1  0  0  0
  2 12  1  0  0  0
  3  4  2  0  0  0
  3  5  1  0  0  0
  5  6  1  0  0  0
  5 13  1  0  0  0
  6  7  1  0  0  0
  6 14  1  0  0  0
  6 15  1  0  0  0
  7  8  2  0  0  0
  7 16  1  0  0  0
 12 17  1  0  0  0
 12 18  1  0  0  0
 12 19  1  0  0  0
 15 20  1  0  0  0
 15 21  1  0  0  0
 15 22  1  0  0  0
  3 23  2  0  0  0
M  END
$$$$