e-ethylene
  DSViewer          3D                             0

 22 21  0  0  0  0  0  0  0  0999 V2000
    6.7376    2.9637   15.6902 N   0  0
    5.5569    2.1055   15.5471 C   0  0  2  0  0  0
    5.9767    0.7124   15.1968 C   0  0
    5.2325   -0.3171   15.5888 C   0  0
    5.6431   -1.7139   15.2394 C   0  0  2  0  0  0
    4.4400   -2.5114   14.8352 C   0  0
    3.3090   -2.0829   15.0901 O   0  0
    7.3495    2.5806   16.4245 H   0  0
    7.2528    2.9837   14.7989 H   0  0
    4.9579    2.1039   16.4699 H   0  0
    4.6846    2.6625   14.4080 C   0  0
    4.3984   -0.1585   16.1171 H   0  0
    6.4050   -1.7224   14.4461 H   0  0
    6.2439   -2.3786   16.4906 C   0  0
    4.5518   -3.3852   14.3620 H   0  0
    3.8738    2.0879   14.2968 H   0  0
    5.2094    2.6658   13.5567 H   0  0
    4.4031    3.5962   14.6292 H   0  0
    6.5226   -3.3134   16.2708 H   0  0
    5.5594   -2.3980   17.2195 H   0  0
    7.0405   -1.8567   16.7959 H   0  0
    6.8127    0.5567   14.6706 H   0  0
  1  2  1  0  0  0
  1  8  1  0  0  0
  1  9  1  0  0  0
  2  3  1  0  0  0
  2 10  1  0  0  0
  2 11  1  0  0  0
  3  4  2  0  0  0
  4  5  1  0  0  0
  4 12  1  0  0  0
  5  6  1  0  0  0
  5 13  1  0  0  0
  5 14  1  0  0  0
  6  7  2  0  0  0
  6 15  1  0  0  0
 11 16  1  0  0  0
 11 17  1  0  0  0
 11 18  1  0  0  0
 14 19  1  0  0  0
 14 20  1  0  0  0
 14 21  1  0  0  0
  3 22  1  0  0  0
M  END
$$$$