hydroxyethylene
  DSViewer          3D                             0

 25 24  0  0  0  0  0  0  0  0999 V2000
    6.7218    3.0920   15.6609 N   0  0
    5.6302    2.1310   15.6165 C   0  0  2  0  0  0
    6.2482    0.7458   15.4782 C   0  0  1  0  0  0
    7.1267    0.5920   16.5953 O   0  0
    5.0963   -0.3111   15.4374 C   0  0
    5.5585   -1.7888   15.2569 C   0  0  2  0  0  0
    4.3389   -2.6439   15.1238 C   0  0
    3.2927   -2.1480   14.6913 O   0  0
    7.3405    2.8468   16.4500 H   0  0
    7.2576    3.0332   14.7875 H   0  0
    5.0474    2.1956   16.5472 H   0  0
    4.7077    2.4304   14.4181 C   0  0
    4.5885   -0.2485   16.2967 H   0  0
    6.1420   -1.8661   14.3285 H   0  0
    6.4034   -2.3303   16.4279 C   0  0
    4.3696   -3.6093   15.3826 H   0  0
    3.9617    1.7649   14.3968 H   0  0
    5.2328    2.3691   13.5692 H   0  0
    4.3295    3.3515   14.5100 H   0  0
    6.6620   -3.2783   16.2426 H   0  0
    5.8685   -2.2901   17.2720 H   0  0
    7.2282   -1.7741   16.5296 H   0  0
    4.4917   -0.0806   14.6749 H   0  0
    7.5945   -0.2673   16.5453 H   0  0
    6.8278    0.6958   14.5449 H   0  0
  1  2  1  0  0  0
  1  9  1  0  0  0
  1 10  1  0  0  0
  2  3  1  0  0  0
  2 11  1  0  0  0
  2 12  1  0  0  0
  3  4  1  0  0  0
  3  5  1  0  0  0
  5  6  1  0  0  0
  5 13  1  0  0  0
  6  7  1  0  0  0
  6 14  1  0  0  0
  6 15  1  0  0  0
  7  8  2  0  0  0
  7 16  1  0  0  0
 12 17  1  0  0  0
 12 18  1  0  0  0
 12 19  1  0  0  0
 15 20  1  0  0  0
 15 21  1  0  0  0
 15 22  1  0  0  0
  5 23  1  0  0  0
  4 24  1  0  0  0
  3 25  1  0  0  0
M  END
$$$$