retro-inverso
  DSViewer          3D                             0

 22 21  0  0  0  0  0  0  0  0999 V2000
    6.7824    2.8251   16.3110 N   0  0
    5.7044    2.1168   15.5869 C   0  0  2  0  0  0
    6.0453    0.7372   15.3676 N   0  0
    5.1160   -0.2579   15.6940 C   0  0
    5.4214   -1.7079   15.4091 C   0  0  2  0  0  0
    4.1988   -2.3651   14.8091 C   0  0
    3.9122   -2.1820   13.6185 O   0  0
    6.9417    2.3739   17.2237 H   0  0
    7.6504    2.7977   15.7588 H   0  0
    4.7549    2.1885   16.1387 H   0  0
    5.5423    2.8008   14.2196 C   0  0
    4.0413    0.0614   16.2185 O   0  0
    6.2923   -1.7765   14.7387 H   0  0
    5.7096   -2.4090   16.7494 C   0  0
    3.6193   -2.9503   15.3764 H   0  0
    4.8183    2.3448   13.7020 H   0  0
    6.4021    2.7411   13.7125 H   0  0
    5.3008    3.7619   14.3537 H   0  0
    5.9150   -3.3736   16.5842 H   0  0
    4.9083   -2.3364   17.3433 H   0  0
    6.4930   -1.9731   17.1925 H   0  0
    6.9227    0.4910   14.9627 H   0  0
  1  2  1  0  0  0
  1  8  1  0  0  0
  1  9  1  0  0  0
  2  3  1  0  0  0
  2 10  1  0  0  0
  2 11  1  0  0  0
  3  4  1  0  0  0
  4  5  1  0  0  0
  4 12  2  0  0  0
  5  6  1  0  0  0
  5 13  1  0  0  0
  5 14  1  0  0  0
  6  7  2  0  0  0
  6 15  1  0  0  0
 11 16  1  0  0  0
 11 17  1  0  0  0
 11 18  1  0  0  0
 14 19  1  0  0  0
 14 20  1  0  0  0
 14 21  1  0  0  0
  3 22  1  0  0  0
M  END
$$$$