peptide_bond
  DSViewer          3D                             0

 22 21  0  0  0  0  0  0  0  0999 V2000
    6.7504    2.7854   16.3048 N   0  0
    5.6854    2.0868   15.6192 C   0  0  2  0  0  0
    6.1031    0.6782   15.4697 C   0  0
    7.3068    0.4106   15.4004 O   0  0
    5.1672   -0.3227   15.4241 N   0  0
    5.5775   -1.6654   15.2760 C   0  0  2  0  0  0
    4.4781   -2.3873   14.6076 C   0  0
    3.3924   -1.8055   14.5011 O   0  0
    6.9037    2.3340   17.2147 H   0  0
    7.6091    2.6936   15.7444 H   0  0
    4.7188    2.1675   16.1387 H   0  0
    5.5282    2.7087   14.2203 C   0  0
    4.1948   -0.1107   15.4754 H   0  0
    6.5234   -1.7402   14.7188 H   0  0
    5.7977   -2.2867   16.6673 C   0  0
    4.6064   -3.3137   14.2535 H   0  0
    4.7954    2.2400   13.7271 H   0  0
    6.3850    2.6121   13.7138 H   0  0
    5.3017    3.6786   14.3097 H   0  0
    6.0885   -3.2381   16.5657 H   0  0
    4.9438   -2.2533   17.1867 H   0  0
    6.5040   -1.7729   17.1543 H   0  0
  1  2  1  0  0  0
  1  9  1  0  0  0
  1 10  1  0  0  0
  2  3  1  0  0  0
  2 11  1  0  0  0
  2 12  1  0  0  0
  3  4  2  0  0  0
  3  5  1  0  0  0
  5  6  1  0  0  0
  5 13  1  0  0  0
  6  7  1  0  0  0
  6 14  1  0  0  0
  6 15  1  0  0  0
  7  8  2  0  0  0
  7 16  1  0  0  0
 12 17  1  0  0  0
 12 18  1  0  0  0
 12 19  1  0  0  0
 15 20  1  0  0  0
 15 21  1  0  0  0
 15 22  1  0  0  0
M  END
$$$$