phosphonamide
  DSViewer          3D                             0

 24 23  0  0  0  0  0  0  0  0999 V2000
    6.7534    3.0614   15.5951 N   0  0
    5.6353    2.1596   15.4803 C   0  0  2  0  0  0
    6.2576    0.7083   15.6110 P   0  0
    7.1173    0.3908   14.6358 O   0  0
    5.2067   -0.3519   15.5566 N   0  0
    5.5388   -1.6494   15.0949 C   0  0  2  0  0  0
    4.5432   -2.0049   14.0634 C   0  0
    3.5153   -1.3214   13.9880 O   0  0
    7.2190    2.8802   16.4940 H   0  0
    7.4131    2.8481   14.8350 H   0  0
    4.9098    2.3524   16.2863 H   0  0
    4.9522    2.3368   14.1112 C   0  0
    4.2597   -0.1394   15.7876 H   0  0
    6.5638   -1.6979   14.6995 H   0  0
    5.3932   -2.6518   16.2517 C   0  0
    4.6957   -2.7754   13.4444 H   0  0
    4.1782    1.7076   14.0404 H   0  0
    5.6086    2.1403   13.3828 H   0  0
    4.6257    3.2776   14.0204 H   0  0
    5.6268   -3.5692   15.9298 H   0  0
    4.4494   -2.6453   16.5823 H   0  0
    6.0086   -2.3936   16.9965 H   0  0
    6.9942    0.5977   16.9180 O   0  0
    7.4835   -0.2625   16.9645 H   0  0
  1  2  1  0  0  0
  1  9  1  0  0  0
  1 10  1  0  0  0
  2  3  1  0  0  0
  2 11  1  0  0  0
  2 12  1  0  0  0
  3  4  2  0  0  0
  3  5  1  0  0  0
  5  6  1  0  0  0
  5 13  1  0  0  0
  6  7  1  0  0  0
  6 14  1  0  0  0
  6 15  1  0  0  0
  7  8  2  0  0  0
  7 16  1  0  0  0
 12 17  1  0  0  0
 12 18  1  0  0  0
 12 19  1  0  0  0
 15 20  1  0  0  0
 15 21  1  0  0  0
 15 22  1  0  0  0
  3 23  1  0  0  0
 23 24  1  0  0  0
M  END
$$$$