ketomethylene
  DSViewer          3D                             0

 23 22  0  0  0  0  0  0  0  0999 V2000
    6.8323    2.8418   16.3347 N   0  0
    5.7363    2.1692   15.6516 C   0  0  2  0  0  0
    6.0785    0.7372   15.5049 C   0  0
    7.2489    0.3862   15.6924 O   0  0
    5.0129   -0.2518   15.1226 C   0  0
    5.5281   -1.7032   15.1959 C   0  0  2  0  0  0
    4.4399   -2.6226   14.7481 C   0  0
    3.3408   -2.1560   14.4252 O   0  0
    6.9782    2.3886   17.2461 H   0  0
    7.6861    2.7275   15.7716 H   0  0
    4.7779    2.2829   16.1788 H   0  0
    5.5480    2.7791   14.2511 C   0  0
    4.2386   -0.1510   15.7472 H   0  0
    6.4039   -1.8320   14.5433 H   0  0
    5.9294   -2.0889   16.6392 C   0  0
    4.5987   -3.6092   14.7095 H   0  0
    4.7950    2.3159   13.7838 H   0  0
    6.3887    2.6651   13.7216 H   0  0
    5.3378    3.7530   14.3366 H   0  0
    6.2582   -3.0332   16.6531 H   0  0
    5.1348   -2.0043   17.2405 H   0  0
    6.6549   -1.4791   16.9582 H   0  0
    4.7145   -0.0609   14.1875 H   0  0
  1  2  1  0  0  0
  1  9  1  0  0  0
  1 10  1  0  0  0
  2  3  1  0  0  0
  2 11  1  0  0  0
  2 12  1  0  0  0
  3  4  2  0  0  0
  3  5  1  0  0  0
  5  6  1  0  0  0
  5 13  1  0  0  0
  6  7  1  0  0  0
  6 14  1  0  0  0
  6 15  1  0  0  0
  7  8  2  0  0  0
  7 16  1  0  0  0
 12 17  1  0  0  0
 12 18  1  0  0  0
 12 19  1  0  0  0
 15 20  1  0  0  0
 15 21  1  0  0  0
 15 22  1  0  0  0
  5 23  1  0  0  0
M  END
$$$$