design
  DSViewer          3D                             0

 49 51  0  0  0  0  0  0  0  0999 V2000
    0.4018   -1.6868   -0.4646 C   0  0
    1.3628   -0.5998   -0.9819 C   0  0  1  0  0  0
    1.6480    0.4036    0.1508 C   0  0
    0.3489    1.0533    0.6598 C   0  0  1  0  0  0
   -0.6149   -0.0427    1.1566 C   0  0
   -0.9167   -1.0905    0.0689 C   0  0  2  0  0  0
    0.6248    2.0778    1.7774 C   0  0
    1.4153    3.3081    1.3820 C   0  0
    1.9020    3.6616    0.1798 C   0  0
    2.5289    4.8453    0.2614 N   0  0
    2.4144    5.1995    1.4911 C   0  0
    1.7439    4.3027    2.2113 N   0  0
    2.6607   -1.2293   -1.5272 C   0  0
    3.5645   -0.2721   -2.2902 C   0  0
    3.2528    0.8671   -2.5791 O   0  0
    4.8050   -0.7347   -2.6858 N   0  0
    5.3791   -0.0638   -3.1977 H   0  0
    5.0923   -1.6865   -2.4645 H   0  0
   -1.8389   -2.2225    0.5723 C   0  0
   -3.2442   -1.7816    1.0076 C   0  0  1  0  0  0
   -4.0291   -1.2148   -0.0750 N   0  0
   -5.3525   -1.6025   -0.0440 C   0  0
   -5.5736   -2.5406    1.1247 C   0  0
   -4.1309   -2.9658    1.4605 C   0  0
   -6.1840   -1.2042   -0.8344 O   0  0
    0.1773   -2.4051   -1.2896 H   0  0
    0.9033   -2.2661    0.3468 H   0  0
    0.8537   -0.0656   -1.8221 H   0  0
    2.1569   -0.1207    0.9941 H   0  0
    2.3529    1.1893   -0.2036 H   0  0
   -0.1509    1.5830   -0.1883 H   0  0
   -0.1741   -0.5517    2.0464 H   0  0
   -1.5617    0.4440    1.4880 H   0  0
   -1.4252   -0.5752   -0.7825 H   0  0
   -0.3375    2.4489    2.2017 H   0  0
    1.1773    1.5715    2.6035 H   0  0
    1.8209    3.1012   -0.7797 H   0  0
    2.8299    6.1494    1.9000 H   0  0
    1.5273    4.3714    3.2078 H   0  0
    3.2408   -1.6708   -0.6827 H   0  0
    2.4088   -2.0557   -2.2333 H   0  0
   -1.9485   -2.9792   -0.2409 H   0  0
   -1.3474   -2.7376    1.4317 H   0  0
   -3.1993   -1.0292    1.8306 H   0  0
   -3.7615   -0.4897   -0.7412 H   0  0
   -6.0165   -1.9541    1.9644 H   0  0
   -6.2408   -3.3952    0.8606 H   0  0
   -3.9909   -3.2193    2.5389 H   0  0
   -3.8853   -3.8756    0.8610 H   0  0
  1  2  1  0  0  0
  1  6  1  0  0  0
  1 26  1  0  0  0
  1 27  1  0  0  0
  2  3  1  0  0  0
  2 13  1  0  0  0
  2 28  1  0  0  0
  3  4  1  0  0  0
  3 29  1  0  0  0
  3 30  1  0  0  0
  4  5  1  0  0  0
  4  7  1  0  0  0
  4 31  1  0  0  0
  5  6  1  0  0  0
  5 32  1  0  0  0
  5 33  1  0  0  0
  6 19  1  0  0  0
  6 34  1  0  0  0
  7  8  1  0  0  0
  7 35  1  0  0  0
  7 36  1  0  0  0
  8  9  4  0  0  0
  8 12  4  0  0  0
  9 10  4  0  0  0
  9 37  1  0  0  0
 10 11  4  0  0  0
 11 12  4  0  0  0
 11 38  1  0  0  0
 12 39  1  0  0  0
 13 14  1  0  0  0
 13 40  1  0  0  0
 13 41  1  0  0  0
 14 15  2  0  0  0
 14 16  1  0  0  0
 16 17  1  0  0  0
 16 18  1  0  0  0
 19 20  1  0  0  0
 19 42  1  0  0  0
 19 43  1  0  0  0
 20 21  1  0  0  0
 20 24  1  0  0  0
 20 44  1  0  0  0
 21 22  1  0  0  0
 21 45  1  0  0  0
 22 23  1  0  0  0
 22 25  2  0  0  0
 23 24  1  0  0  0
 23 46  1  0  0  0
 23 47  1  0  0  0
 24 48  1  0  0  0
 24 49  1  0  0  0
M  END
$$$$