r4
  DSViewer          3D                             0

  5  4  0  0  0  0  0  0  0  0999 V2000
   -3.7761    3.2050    2.8932 C   0  0
   -3.6543    3.4068    0.8372 C   0  0
   -4.6858    3.1223    0.1560 C   0  0
   -5.2012    2.3816    1.3682 C   0  0
   -3.7801    3.2364    2.9060 C   0  0
  1  2  1  0  0  0
  2  3  1  0  0  0
  3  4  1  0  0  0
  4  5  1  0  0  0
M  END
$$$$
r4
  DSViewer          3D                             0

  5  5  0  0  0  0  0  0  0  0999 V2000
   -3.8192   -2.2493    1.0251 C   0  0
   -1.8960    0.0102    0.8814 C   0  0
   -2.6908    0.7608   -1.0775 C   0  0
   -3.3306   -1.2226   -1.2822 C   0  0
   -2.6019   -0.9324    0.1309 C   0  0
  1  2  1  0  0  0
  2  3  1  0  0  0
  3  4  1  0  0  0
  4  5  1  0  0  0
  1  5  1  0  0  0
M  END
$$$$
r4
  DSViewer          3D                             0

  5  5  0  0  0  0  0  0  0  0999 V2000
   -3.7190    3.4435    0.2485 C   0  0
   -2.5866    1.2174   -0.6962 C   0  0
   -3.9977    1.0754   -2.7630 C   0  0
   -5.1415    2.4166   -1.6325 C   0  0
   -3.9625    2.5979   -0.9416 C   0  0
  1  2  1  0  0  0
  2  3  1  0  0  0
  3  4  1  0  0  0
  4  5  1  0  0  0
  1  5  1  0  0  0
M  END
$$$$