Heme
  DSViewer          3D                             0

 75 82 75  0  0  0  0  0  0  0999 V2000
   48.3260   46.2830    9.0060 L   0  0
   45.2660   44.8380    8.9720 L   0  0
   49.7440   43.1000    9.5150 L   0  0
   51.4490   47.6140    9.4340 L   0  0
   46.9830   49.2850    9.7460 L   0  0
   47.6330   44.3230    9.2360 L   0  0
   46.3290   43.9550    9.1050 L   0  0
   46.2450   42.4980    9.1030 L   0  0
   47.4950   42.0230    9.2390 L   0  0
   48.3660   43.1750    9.3930 L   0  0
   47.9590   40.5670    9.2850 L   0  0
   44.9310   41.7230    8.9200 L   0  0
   44.3080   41.1840   10.2490 L   0  0
   43.0370   40.4450   10.0220 L   0  0
   42.7550   40.0020    8.8360 L   0  0
   42.3520   40.3630   11.0740 L   0  0
   50.1740   45.5380    9.4980 L   0  0
   50.5810   44.1830    9.4700 L   0  0
   52.0350   44.1070    9.4690 L   0  0
   52.5070   45.3660    9.4900 L   0  0
   51.3780   46.2320    9.4500 L   0  0
   52.8370   42.7980    9.5130 L   0  0
   53.9520   45.8370    9.5010 L   0  0
   55.0540   45.1940    9.3700 L   0  0
   49.0800   48.0990    9.6630 L   0  0
   50.3960   48.4940    9.5400 L   0  0
   50.4980   49.9360    9.4900 L   0  0
   49.2450   50.3940    9.6060 L   0  0
   48.3390   49.2670    9.7710 L   0  0
   51.8330   50.7020    9.3910 L   0  0
   48.7320   51.8750    9.5950 L   0  0
   48.3610   52.3920   10.7550 L   0  0
   46.4930   46.9000    9.2830 L   0  0
   46.1020   48.2560    9.4250 L   0  0
   44.6880   48.3560    9.2270 L   0  0
   44.1950   47.1230    9.0320 L   0  0
   45.2900   46.2060    9.1080 L   0  0
   43.9480   49.7220    9.2580 L   0  0
   42.7310   46.7040    8.8250 L   0  0
   42.1610   46.5590    7.4230 L   0  0
   40.7160   46.1030    7.3080 L   0  0
   40.1880   46.1820    6.1650 L   0  0
   40.1990   45.6460    8.3320 L   0  0
   44.3793   44.4316    8.7515 L   0  0
   50.1538   42.1970    9.6442 L   0  0
   52.3598   48.0148    9.3352 L   0  0
   46.5581   50.1563    9.9917 L   0  0
   48.9525   40.5366    9.3943 L   0  0
   47.7036   40.1082    8.4339 L   0  0
   47.5248   40.1025   10.0569 L   0  0
   44.2663   42.3324    8.4878 L   0  0
   45.1089   40.9434    8.3195 L   0  0
   44.9642   40.5675   10.6841 L   0  0
   44.1251   41.9583   10.8548 L   0  0
   41.5078   39.8617   10.8844 L   0  0
   53.8152   43.0054    9.5032 L   0  0
   52.6073   42.2389    8.7163 L   0  0
   52.6114   42.2962   10.3481 L   0  0
   54.0631   46.8219    9.6338 L   0  0
   55.9255   45.6831    9.4052 L   0  0
   55.0417   44.2036    9.2327 L   0  0
   51.6529   51.6854    9.3710 L   0  0
   52.3104   50.4340    8.5541 L   0  0
   52.4025   50.4840   10.1836 L   0  0
   48.6871   52.4057    8.7486 L   0  0
   48.0266   53.3334   10.7988 L   0  0
   48.4150   51.8414   11.5880 L   0  0
   42.9715   49.5763    9.0993 L   0  0
   44.3161   50.3173    8.5438 L   0  0
   44.0794   50.1526   10.1509 L   0  0
   42.6212   45.8163    9.2721 L   0  0
   42.1690   47.3856    9.2936 L   0  0
   42.2323   47.4502    6.9751 L   0  0
   42.7265   45.8941    6.9351 L   0  0
   39.2545   45.3804    8.1391 L   0  0
  1  6  1  0  0  0
  2  7  1  0  0  0
  2 37  1  0  0  0
  3 10  1  0  0  0
  3 18  1  0  0  0
  4 21  1  0  0  0
  4 26  1  0  0  0
  5 29  1  0  0  0
  5 34  1  0  0  0
  6  7  1  0  0  0
  6 10  1  0  0  0
  7  8  1  0  0  0
  8  9  1  0  0  0
  8 12  1  0  0  0
  9 10  1  0  0  0
  9 11  1  0  0  0
 12 13  1  0  0  0
 13 14  1  0  0  0
 14 15  1  0  0  0
 14 16  1  0  0  0
 18 17  1  0  0  0
 18 19  1  0  0  0
 19 20  1  0  0  0
 19 22  1  0  0  0
 20 21  1  0  0  0
 20 23  1  0  0  0
 21 17  1  0  0  0
 23 24  1  0  0  0
 25  1  1  0  0  0
 25 26  1  0  0  0
 25 29  1  0  0  0
 26 27  1  0  0  0
 27 28  1  0  0  0
 27 30  1  0  0  0
 28 29  1  0  0  0
 28 31  1  0  0  0
 31 32  1  0  0  0
 34 33  1  0  0  0
 34 35  1  0  0  0
 35 36  1  0  0  0
 35 38  1  0  0  0
 36 37  1  0  0  0
 36 39  1  0  0  0
 37 33  1  0  0  0
 39 40  1  0  0  0
 40 41  1  0  0  0
 41 42  1  0  0  0
 41 43  1  0  0  0
  2 44  1  0  0  0
  3 45  1  0  0  0
  4 46  1  0  0  0
  5 47  1  0  0  0
 11 48  1  0  0  0
 11 49  1  0  0  0
 11 50  1  0  0  0
 12 51  1  0  0  0
 12 52  1  0  0  0
 13 53  1  0  0  0
 13 54  1  0  0  0
 16 55  1  0  0  0
 22 56  1  0  0  0
 22 57  1  0  0  0
 22 58  1  0  0  0
 23 59  1  0  0  0
 24 60  1  0  0  0
 24 61  1  0  0  0
 30 62  1  0  0  0
 30 63  1  0  0  0
 30 64  1  0  0  0
 31 65  1  0  0  0
 32 66  1  0  0  0
 32 67  1  0  0  0
 38 68  1  0  0  0
 38 69  1  0  0  0
 38 70  1  0  0  0
 39 71  1  0  0  0
 39 72  1  0  0  0
 40 73  1  0  0  0
 40 74  1  0  0  0
 43 75  1  0  0  0
 33  1  1  0  0  0
 17  1  1  0  0  0
  1 F    1   1
  2 F    1   6
  3 F    1   6
  4 F    1   6
  5 F    1   6
  6 F    1   7
  7 F    1   6
  8 F    1   6
  9 F    1   6
 10 F    1   6
 11 F    1   6
 12 F    1   6
 13 F    1   6
 14 F    1   6
 15 F    1   8
 16 F    1   8
 17 F    1   7
 18 F    1   6
 19 F    1   6
 20 F    1   6
 21 F    1   6
 22 F    1   6
 23 F    1   6
 24 F    1   6
 25 F    1   7
 26 F    1   6
 27 F    1   6
 28 F    1   6
 29 F    1   6
 30 F    1   6
 31 F    1   6
 32 F    1   6
 33 F    1   7
 34 F    1   6
 35 F    1   6
 36 F    1   6
 37 F    1   6
 38 F    1   6
 39 F    1   6
 40 F    1   6
 41 F    1   6
 42 F    1   8
 43 F    1   8
 44 F    1   1
 45 F    1   1
 46 F    1   1
 47 F    1   1
 48 F    1   1
 49 F    1   1
 50 F    1   1
 51 F    1   1
 52 F    1   1
 53 F    1   1
 54 F    1   1
 55 F    1   1
 56 F    1   1
 57 F    1   1
 58 F    1   1
 59 F    1   1
 60 F    1   1
 61 F    1   1
 62 F    1   1
 63 F    1   1
 64 F    1   1
 65 F    1   1
 66 F    1   1
 67 F    1   1
 68 F    1   1
 69 F    1   1
 70 F    1   1
 71 F    1   1
 72 F    1   1
 73 F    1   1
 74 F    1   1
 75 F    1   1
M  ALS   1  1 F H   
M  ALS   2  1 F C   
M  ALS   3  1 F C   
M  ALS   4  1 F C   
M  ALS   5  1 F C   
M  ALS   6  1 F N   
M  ALS   7  1 F C   
M  ALS   8  1 F C   
M  ALS   9  1 F C   
M  ALS  10  1 F C   
M  ALS  11  1 F C   
M  ALS  12  1 F C   
M  ALS  13  1 F C   
M  ALS  14  1 F C   
M  ALS  15  1 F O   
M  ALS  16  1 F O   
M  ALS  17  1 F N   
M  ALS  18  1 F C   
M  ALS  19  1 F C   
M  ALS  20  1 F C   
M  ALS  21  1 F C   
M  ALS  22  1 F C   
M  ALS  23  1 F C   
M  ALS  24  1 F C   
M  ALS  25  1 F N   
M  ALS  26  1 F C   
M  ALS  27  1 F C   
M  ALS  28  1 F C   
M  ALS  29  1 F C   
M  ALS  30  1 F C   
M  ALS  31  1 F C   
M  ALS  32  1 F C   
M  ALS  33  1 F N   
M  ALS  34  1 F C   
M  ALS  35  1 F C   
M  ALS  36  1 F C   
M  ALS  37  1 F C   
M  ALS  38  1 F C   
M  ALS  39  1 F C   
M  ALS  40  1 F C   
M  ALS  41  1 F C   
M  ALS  42  1 F O   
M  ALS  43  1 F O   
M  ALS  44  1 F H   
M  ALS  45  1 F H   
M  ALS  46  1 F H   
M  ALS  47  1 F H   
M  ALS  48  1 F H   
M  ALS  49  1 F H   
M  ALS  50  1 F H   
M  ALS  51  1 F H   
M  ALS  52  1 F H   
M  ALS  53  1 F H   
M  ALS  54  1 F H   
M  ALS  55  1 F H   
M  ALS  56  1 F H   
M  ALS  57  1 F H   
M  ALS  58  1 F H   
M  ALS  59  1 F H   
M  ALS  60  1 F H   
M  ALS  61  1 F H   
M  ALS  62  1 F H   
M  ALS  63  1 F H   
M  ALS  64  1 F H   
M  ALS  65  1 F H   
M  ALS  66  1 F H   
M  ALS  67  1 F H   
M  ALS  68  1 F H   
M  ALS  69  1 F H   
M  ALS  70  1 F H   
M  ALS  71  1 F H   
M  ALS  72  1 F H   
M  ALS  73  1 F H   
M  ALS  74  1 F H   
M  ALS  75  1 F H   
M  END
$$$$