phenyl_2_imidazole
  DSViewer          3D                             0

 19 20  0  0  0  0  0  0  0  0999 V2000
   44.4420   45.1950   16.9730 N   0  0
   44.5470   45.5920   18.3230 C   0  0
   45.7790   45.5050   18.7070 C   0  0
   46.4920   45.1070   17.6720 N   0  0
   45.6850   44.8470   16.5830 C   0  0
   46.1820   44.3260   15.2560 C   0  0
   45.2950   44.0900   14.2120 C   0  0
   45.7340   43.6690   12.9460 C   0  0
   47.0730   43.3090   12.8060 C   0  0
   47.9610   43.4660   13.8580 C   0  0
   47.5010   43.9490   15.0700 C   0  0
   43.7850   45.8945   18.8956 H   0  0
   46.1275   45.7036   19.6230 H   0  0
   44.3162   44.2238   14.3668 H   0  0
   45.1054   43.6288   12.1693 H   0  0
   47.3963   42.9335   11.9374 H   0  0
   48.9263   43.2321   13.7421 H   0  0
   48.1405   44.0282   15.8347 H   0  0
   47.4869   45.0067   17.6755 H   0  0
  1  2  1  0  0  0
  1  5  2  0  0  0
  2  3  2  0  0  0
  3  4  1  0  0  0
  4  5  1  0  0  0
  5  6  1  0  0  0
  6  7  4  0  0  0
  6 11  4  0  0  0
  7  8  4  0  0  0
  8  9  4  0  0  0
  9 10  4  0  0  0
 10 11  4  0  0  0
  2 12  1  0  0  0
  3 13  1  0  0  0
  7 14  1  0  0  0
  8 15  1  0  0  0
  9 16  1  0  0  0
 10 17  1  0  0  0
 11 18  1  0  0  0
  4 19  1  0  0  0
M  END
$$$$