phenyl_1_imidazole
  DSViewer          3D                             0

 16 17  0  0  0  0  0  0  0  0999 V2000
   48.6071   45.8562   12.7744 C   0  0
   48.8101   46.2572   11.4524 C   0  0
   47.7220   46.2022   10.8544 N   0  0
   46.7691   45.7612   11.6624 C   0  0
   47.3120   45.5072   12.8724 N   0  0
   46.6870   44.9912   14.1494 C   0  0
   47.4954   44.8677   15.2931 C   0  0
   46.8884   44.4767   16.5173 C   0  0
   45.5098   44.2974   16.5500 C   0  0
   44.7284   44.3598   15.3987 C   0  0
   45.3533   44.7930   14.2224 C   0  0
   48.4773   45.0513   15.2463 H   0  0
   47.4413   44.3334   17.3381 H   0  0
   45.0655   44.1180   17.4277 H   0  0
   43.7613   44.1058   15.4114 H   0  0
   44.7939   44.9610   13.4107 H   0  0
  1  2  2  0  0  0
  1  5  1  0  0  0
  2  3  1  0  0  0
  3  4  2  0  0  0
  4  5  1  0  0  0
  5  6  1  0  0  0
  6  7  4  0  0  0
  6 11  4  0  0  0
  7  8  4  0  0  0
  8  9  4  0  0  0
  9 10  4  0  0  0
 10 11  4  0  0  0
  7 12  1  0  0  0
  8 13  1  0  0  0
  9 14  1  0  0  0
 10 15  1  0  0  0
 11 16  1  0  0  0
M  END
$$$$