Molecule-1
  DSViewer          3D                             0

  5  5  0  0  0  0  0  0  0  0999 V2000
  -15.5787   -7.4310    2.8686 C   0  0
  -14.2847   -5.6208    2.7107 C   0  0
  -14.8657   -4.8237    1.7484 C   0  0
  -15.4138   -5.3507    1.1366 C   0  0
  -15.8819   -7.2080    1.5635 C   0  0
  1  2  1  0  0  0
  2  3  1  0  0  0
  3  4  1  0  0  0
  4  5  1  0  0  0
  5  1  1  0  0  0
M  END
$$$$
Molecule-10
  DSViewer          3D                             0

  5  4  0  0  0  0  0  0  0  0999 V2000
  -16.2922   -7.2177    0.1511 C   0  0
  -14.7525   -6.7034    0.1847 C   0  0
  -13.2461   -5.8386   -1.2251 C   0  0
  -14.1063   -5.8748   -1.6809 C   0  0
  -16.3095   -7.2106    0.2071 C   0  0
  1  2  1  0  0  0
  2  3  1  0  0  0
  3  4  1  0  0  0
  4  5  1  0  0  0
M  END
$$$$