mol2
  DSViewer          3D                             0

 46 49  0  0  0  0  0  0  0  0999 V2000
   -8.5759   -0.9746    0.4833 C   0  0
   -8.7525    0.3442    0.5351 C   0  0
   -7.4371    0.9554    0.4778 C   0  0
   -6.4853    0.0332    0.3933 C   0  0
   -7.1156   -1.2172    0.3884 N   0  0
   -9.7918   -1.8802    0.5305 C   0  0
  -10.2668   -2.3592   -0.6872 C   0  0
  -11.3766   -3.1946   -0.7449 C   0  0
  -12.0301   -3.5635    0.4239 C   0  0
  -11.5665   -3.0920    1.6450 C   0  0
  -10.4559   -2.2574    1.6912 C   0  0
   -6.3026   -2.4132    0.2943 C   0  0
   -6.5987   -3.5128   -0.5009 C   0  0
   -5.7623   -4.6224   -0.5343 C   0  0
   -4.6072   -4.6442    0.2362 C   0  0
   -4.2976   -3.5520    1.0361 C   0  0
   -5.1415   -2.4474    1.0615 C   0  0
   -7.1859    2.4341    0.5110 C   0  0
   -9.6275    0.8238    0.6010 H   0  0
   -5.5007    0.2007    0.3425 H   0  0
   -9.8026   -2.0983   -1.5336 H   0  0
  -11.7045   -3.5300   -1.6281 H   0  0
  -12.8286   -4.1642    0.3862 H   0  0
  -12.0315   -3.3529    2.4910 H   0  0
  -10.1292   -1.9226    2.5750 H   0  0
   -7.4283   -3.5060   -1.0593 H   0  0
   -5.9922   -5.4049   -1.1131 H   0  0
   -3.6763   -5.8706    0.2040 C   0  0
   -3.4677   -3.5600    1.5939 H   0  0
   -4.9107   -1.6650    1.6400 H   0  0
   -6.2024    2.6069    0.4590 H   0  0
   -7.5462    2.8149    1.3627 H   0  0
   -7.6416    2.8677   -0.2665 H   0  0
   -4.3759   -7.1550    0.6716 C   0  0
   -4.1351   -8.2362   -0.3982 C   0  0
   -3.3340   -7.5978   -1.5482 C   0  0
   -3.0798   -6.1220   -1.1891 C   0  0
   -2.9394   -5.6471    0.8419 H   0  0
   -5.3569   -6.9902    0.7741 H   0  0
   -3.9939   -7.4513    1.5470 H   0  0
   -3.6162   -8.9945   -0.0034 H   0  0
   -5.0111   -8.5745   -0.7419 H   0  0
   -2.4622   -8.0748   -1.6600 H   0  0
   -3.8572   -7.6548   -2.3985 H   0  0
   -2.0968   -5.9392   -1.1765 H   0  0
   -3.5214   -5.5273   -1.8609 H   0  0
  1  2  2  0  0  0
  2  3  1  0  0  0
  3  4  2  0  0  0
  4  5  1  0  0  0
  5  1  1  0  0  0
  6  1  1  0  0  0
  6  7  4  0  0  0
  7  8  4  0  0  0
  8  9  4  0  0  0
  9 10  4  0  0  0
 10 11  4  0  0  0
 11  6  4  0  0  0
  5 12  1  0  0  0
 12 13  4  0  0  0
 13 14  4  0  0  0
 14 15  4  0  0  0
 15 16  4  0  0  0
 16 17  4  0  0  0
 17 12  4  0  0  0
  3 18  1  0  0  0
  2 19  1  0  0  0
  4 20  1  0  0  0
  7 21  1  0  0  0
  8 22  1  0  0  0
  9 23  1  0  0  0
 10 24  1  0  0  0
 11 25  1  0  0  0
 13 26  1  0  0  0
 14 27  1  0  0  0
 15 28  1  0  0  0
 16 29  1  0  0  0
 17 30  1  0  0  0
 18 31  1  0  0  0
 18 32  1  0  0  0
 18 33  1  0  0  0
 34 35  1  0  0  0
 35 36  1  0  0  0
 36 37  1  0  0  0
 28 34  1  0  0  0
 28 37  1  0  0  0
 28 38  1  0  0  0
 34 39  1  0  0  0
 34 40  1  0  0  0
 35 41  1  0  0  0
 35 42  1  0  0  0
 36 43  1  0  0  0
 36 44  1  0  0  0
 37 45  1  0  0  0
 37 46  1  0  0  0
M  END
$$$$