r1
  DSViewer          3D                             0

  5  5  0  0  0  0  0  0  0  0999 V2000
   -5.1082   -7.0363    1.7685 C   0  0
   -3.2099   -8.1801    0.8024 C   0  0
   -1.7982   -8.1383    0.1608 C   0  0
   -3.8600   -8.1161   -0.2045 C   0  0
   -5.1177   -7.8462    0.8088 C   0  0
  1  2  1  0  0  0
  2  3  1  0  0  0
  3  4  1  0  0  0
  4  5  1  0  0  0
  1  5  1  0  0  0
M  END
$$$$
r1
  DSViewer          3D                             0

  3  3  0  0  0  0  0  0  0  0999 V2000
   -1.8642   -6.4355    2.8374 C   0  0
   -2.2005   -7.5594    1.8397 C   0  0
   -2.9925   -7.4345    3.1543 C   0  0
  1  2  1  0  0  0
  2  3  1  0  0  0
  1  3  1  0  0  0
M  END
$$$$
r1
  DSViewer          3D                             0

  5  5  0  0  0  0  0  0  0  0999 V2000
   -3.6671   -6.7467   -3.1531 C   0  0
   -2.7371   -8.5043   -1.2068 C   0  0
   -0.6275   -6.9851   -0.8166 C   0  0
   -1.1499   -6.3954   -2.7567 C   0  0
   -2.5558   -7.0494   -2.0597 C   0  0
  1  2  1  0  0  0
  2  3  1  0  0  0
  3  4  1  0  0  0
  4  5  1  0  0  0
  1  5  1  0  0  0
M  END
$$$$