concept1.sd
  DSViewer          3D                             0

 33 37  0  0  0  0  0  0  0  0999 V2000
    3.2078    0.6832    1.9043 C   0  0
    4.4146    0.2728    2.6678 C   0  0
    2.3024    1.7107    2.4132 C   0  0
    4.7151    0.9097    3.9333 C   0  0
    2.6008    2.3480    3.6815 C   0  0
    3.8165    1.9471    4.4327 C   0  0
    2.8995    0.0111    0.5410 C   0  0
    2.3014   -3.2927    0.9263 C   0  0
    2.8856   -3.4043    2.2907 C   0  0
    3.1235   -3.5798   -0.2571 C   0  0
    4.3087   -3.7599    2.4481 C   0  0
    4.5398   -3.9454   -0.0901 C   0  0
    5.1288   -4.0247    1.2561 C   0  0
   -0.8095    0.4484    0.1601 N   0  0
    0.4454    0.8140    0.2187 C   0  0
    1.4000   -0.2674    0.4460 N   0  0
    0.5730   -1.4274    0.5308 C   0  0
   -0.7508   -0.9936    0.3589 C   0  0
    1.0360    2.2268    0.0796 C   0  0
    0.8965   -2.7833    0.7408 C   0  0
   -0.1714   -3.7162    0.7745 C   0  0
   -1.5250   -3.2804    0.5998 C   0  0
   -1.8242   -1.9088    0.3898 C   0  0
   -1.4170    2.8605   -2.0193 C   0  0
   -0.3428    3.6239   -2.6468 C   0  0
   -2.7692    2.8980   -2.5920 C   0  0
   -0.6194    4.4203   -3.8465 C   0  0
   -3.0550    3.7021   -3.7967 C   0  0
   -1.9721    4.4601   -4.4172 C   0  0
    0.9531    3.5923   -2.0979 O   0  0
    1.2240    2.2665   -1.5795 C   0  0
   -3.0812   -1.4998    0.2269 O   0  0
   -3.4695   -1.3788    1.1085 H   0  0
  1  2  4  0  0  0
  1  3  4  0  0  0
  1  7  1  0  0  0
  2  4  4  0  0  0
  3  5  4  0  0  0
  4  6  4  0  0  0
  5  6  4  0  0  0
  7 16  1  0  0  0
  8  9  4  0  0  0
  8 10  4  0  0  0
  8 20  1  0  0  0
  9 11  4  0  0  0
 10 12  4  0  0  0
 11 13  4  0  0  0
 12 13  4  0  0  0
 14 18  1  0  0  0
 14 15  2  0  0  0
 15 16  1  0  0  0
 15 19  1  0  0  0
 16 17  1  0  0  0
 17 18  4  0  0  0
 17 20  4  0  0  0
 18 23  4  0  0  0
 19 31  1  0  0  0
 20 21  4  0  0  0
 21 22  4  0  0  0
 22 23  4  0  0  0
 23 32  1  0  0  0
 24 25  4  0  0  0
 24 26  4  0  0  0
 25 27  4  0  0  0
 25 30  1  0  0  0
 26 28  4  0  0  0
 27 29  4  0  0  0
 28 29  4  0  0  0
 30 31  1  0  0  0
 32 33  1  0  0  0
M  END
$$$$