Mol13
  DSViewer          3D                             0

 30 32  0  0  0  0  0  0  0  0999 V2000
   -4.4650    1.5016   -0.6060 O   0  0
   -4.2097    0.4480   -1.1496 C   0  0
   -3.0586   -0.1993   -1.1785 O   0  0
   -5.1659   -0.2083   -1.8274 O   0  0
   -5.8865    0.4328   -1.6659 H   0  0
    0.7044   -1.1876    2.7580 N   0  0
    0.8120   -1.7592    3.5176 H   0  0
    0.0785   -0.4964    2.9676 H   0  0
    2.3589    2.7621   -0.6099 C   0  0
    2.8925    1.6049   -1.2020 C   0  0
    4.2509    1.2836   -1.0438 C   0  0
    5.0892    2.1195   -0.2885 C   0  0
    4.5647    3.2752    0.3069 C   0  0
    3.2062    3.5938    0.1458 C   0  0
    2.0721    0.7702   -1.9505 N   0  0
    2.3059   -1.6287   -1.4760 C   0  0
    1.7501   -2.4604   -0.4135 C   0  0
    1.0086   -1.6624    0.3655 C   0  0
    1.0100   -0.3101   -0.0890 N   0  0
    1.8451   -0.3998   -1.2372 C   0  0
    0.2004   -1.9768    1.6110 C   0  0  2  0  0  0
   -1.9535   -2.9449    1.6748 C   0  0
   -3.4602   -2.6292    1.5733 C   0  0
   -3.7719   -1.9760    0.2127 C   0  0
   -2.8982   -0.7180    0.0420 C   0  0  1  0  0  0
   -1.4061   -1.0832    0.1831 C   0  0
   -1.1510   -1.7032    1.5111 N   0  0
    5.3841    4.0983    1.0504 F   0  0
    0.5391    0.5012    0.3038 H   0  0
    1.6973    0.9816   -2.8737 H   0  0
  1  2  2  0  0  0
  2  3  1  0  0  0
  2  4  1  0  0  0
  3 25  1  0  0  0
  4  5  1  0  0  0
  6  7  1  0  0  0
  6  8  1  0  0  0
  6 21  1  0  0  0
  9 10  2  0  0  0
  9 14  1  0  0  0
 10 11  1  0  0  0
 10 15  1  0  0  0
 11 12  2  0  0  0
 12 13  1  0  0  0
 13 14  2  0  0  0
 13 28  1  0  0  0
 15 20  1  0  0  0
 15 30  1  0  0  0
 16 17  1  0  0  0
 16 20  2  0  0  0
 17 18  2  0  0  0
 18 19  1  0  0  0
 18 21  1  0  0  0
 19 20  1  0  0  0
 19 29  1  0  0  0
 21 27  1  0  0  0
 22 23  1  0  0  0
 22 27  1  0  0  0
 23 24  1  0  0  0
 24 25  1  0  0  0
 25 26  1  0  0  0
 26 27  1  0  0  0
M  END
$$$$